4761
  -OEChem-03022013313D

 38 39  0     1  0  0  0  0  0999 V2000
   -2.5900    1.8984   -0.2652 N   0  0  0  0  0  0  0  0  0  0  0  0
   -0.2150   -1.6757    1.0466 N   0  0  0  0  0  0  0  0  0  0  0  0
    0.0079    0.4620   -0.0691 C   0  0  1  0  0  0  0  0  0  0  0  0
   -0.5800    1.3723    1.0410 C   0  0  0  0  0  0  0  0  0  0  0  0
   -2.1125    1.4061    1.0226 C   0  0  0  0  0  0  0  0  0  0  0  0
    1.5331    0.4749   -0.1096 C   0  0  0  0  0  0  0  0  0  0  0  0
   -0.5311   -0.9627   -0.0409 C   0  0  0  0  0  0  0  0  0  0  0  0
    2.1661    0.2721   -1.3167 C   0  0  0  0  0  0  0  0  0  0  0  0
    2.2256    0.6886    1.0624 C   0  0  0  0  0  0  0  0  0  0  0  0
   -1.2793   -1.3934   -1.1056 C   0  0  0  0  0  0  0  0  0  0  0  0
   -2.1263    3.2671   -0.4970 C   0  0  0  0  0  0  0  0  0  0  0  0
   -4.0510    1.8390   -0.3293 C   0  0  0  0  0  0  0  0  0  0  0  0
    3.5604    0.2836   -1.3536 C   0  0  0  0  0  0  0  0  0  0  0  0
    3.6199    0.7000    1.0255 C   0  0  0  0  0  0  0  0  0  0  0  0
   -1.7562   -2.6983   -1.0490 C   0  0  0  0  0  0  0  0  0  0  0  0
    4.2874    0.4977   -0.1825 C   0  0  0  0  0  0  0  0  0  0  0  0
   -0.6958   -2.9391    1.0662 C   0  0  0  0  0  0  0  0  0  0  0  0
   -1.4634   -3.4925    0.0541 C   0  0  0  0  0  0  0  0  0  0  0  0
   -0.2967    0.9220   -1.0206 H   0  0  0  0  0  0  0  0  0  0  0  0
   -0.3175    0.9766    2.0308 H   0  0  0  0  0  0  0  0  0  0  0  0
   -0.1458    2.3781    1.0016 H   0  0  0  0  0  0  0  0  0  0  0  0
   -2.4665    2.0414    1.8455 H   0  0  0  0  0  0  0  0  0  0  0  0
   -2.5065    0.4016    1.2185 H   0  0  0  0  0  0  0  0  0  0  0  0
    1.6088    0.1040   -2.2332 H   0  0  0  0  0  0  0  0  0  0  0  0
    1.7514    0.8295    2.0256 H   0  0  0  0  0  0  0  0  0  0  0  0
   -1.5024   -0.7673   -1.9615 H   0  0  0  0  0  0  0  0  0  0  0  0
   -1.0489    3.3145   -0.6809 H   0  0  0  0  0  0  0  0  0  0  0  0
   -2.3781    3.9397    0.3311 H   0  0  0  0  0  0  0  0  0  0  0  0
   -2.5860    3.6739   -1.4061 H   0  0  0  0  0  0  0  0  0  0  0  0
   -4.4004    0.8094   -0.1921 H   0  0  0  0  0  0  0  0  0  0  0  0
   -4.4073    2.1600   -1.3144 H   0  0  0  0  0  0  0  0  0  0  0  0
   -4.5244    2.4692    0.4323 H   0  0  0  0  0  0  0  0  0  0  0  0
    4.0802    0.1253   -2.2940 H   0  0  0  0  0  0  0  0  0  0  0  0
    4.1868    0.8617    1.9378 H   0  0  0  0  0  0  0  0  0  0  0  0
   -2.3550   -3.0956   -1.8630 H   0  0  0  0  0  0  0  0  0  0  0  0
    5.3731    0.5054   -0.2110 H   0  0  0  0  0  0  0  0  0  0  0  0
   -0.4393   -3.5168    1.9481 H   0  0  0  0  0  0  0  0  0  0  0  0
   -1.8245   -4.5124    0.1195 H   0  0  0  0  0  0  0  0  0  0  0  0
  1  5  1  0  0  0  0
  1 11  1  0  0  0  0
  1 12  1  0  0  0  0
  2  7  1  0  0  0  0
  2 17  2  0  0  0  0
  3  4  1  0  0  0  0
  3  6  1  0  0  0  0
  3  7  1  0  0  0  0
  3 19  1  0  0  0  0
  4  5  1  0  0  0  0
  4 20  1  0  0  0  0
  4 21  1  0  0  0  0
  5 22  1  0  0  0  0
  5 23  1  0  0  0  0
  6  8  2  0  0  0  0
  6  9  1  0  0  0  0
  7 10  2  0  0  0  0
  8 13  1  0  0  0  0
  8 24  1  0  0  0  0
  9 14  2  0  0  0  0
  9 25  1  0  0  0  0
 10 15  1  0  0  0  0
 10 26  1  0  0  0  0
 11 27  1  0  0  0  0
 11 28  1  0  0  0  0
 11 29  1  0  0  0  0
 12 30  1  0  0  0  0
 12 31  1  0  0  0  0
 12 32  1  0  0  0  0
 13 16  2  0  0  0  0
 13 33  1  0  0  0  0
 14 16  1  0  0  0  0
 14 34  1  0  0  0  0
 15 18  2  0  0  0  0
 15 35  1  0  0  0  0
 16 36  1  0  0  0  0
 17 18  1  0  0  0  0
 17 37  1  0  0  0  0
 18 38  1  0  0  0  0
M  END
> <PUBCHEM_COMPOUND_CID>
4761

> <PUBCHEM_CONFORMER_RMSD>
0.6

> <PUBCHEM_CONFORMER_DIVERSEORDER>
3
73
68
56
33
65
71
70
34
18
67
63
62
57
55
52
53
66
54
61
35
59
50
69
21
64
48
41
45
51
22
72
31
60
58
19
42
40
13
7
27
24
10
43
26
28
44
39
23
49
47
30
6
38
20
11
37
12
36
5
17
32
4
8
25
46
16
15
29
14
2
1
9

> <PUBCHEM_MMFF94_PARTIAL_CHARGES>
26
1 -0.81
10 -0.15
11 0.27
12 0.27
13 -0.15
14 -0.15
15 -0.15
16 -0.15
17 0.16
18 -0.15
2 -0.62
24 0.15
25 0.15
26 0.15
3 0.29
33 0.15
34 0.15
35 0.15
36 0.15
37 0.15
38 0.15
5 0.27
6 -0.14
7 0.17
8 -0.15
9 -0.15

> <PUBCHEM_EFFECTIVE_ROTOR_COUNT>
5

> <PUBCHEM_PHARMACOPHORE_FEATURES>
4
1 1 cation
1 2 acceptor
6 2 7 10 15 17 18 rings
6 6 8 9 13 14 16 rings

> <PUBCHEM_HEAVY_ATOM_COUNT>
18

> <PUBCHEM_ATOM_DEF_STEREO_COUNT>
0

> <PUBCHEM_ATOM_UDEF_STEREO_COUNT>
1

> <PUBCHEM_BOND_DEF_STEREO_COUNT>
0

> <PUBCHEM_BOND_UDEF_STEREO_COUNT>
0

> <PUBCHEM_ISOTOPIC_ATOM_COUNT>
0

> <PUBCHEM_COMPONENT_COUNT>
1

> <PUBCHEM_CACTVS_TAUTO_COUNT>
2

> <PUBCHEM_CONFORMER_ID>
0000129900000003

> <PUBCHEM_MMFF94_ENERGY>
51.9861

> <PUBCHEM_FEATURE_SELFOVERLAP>
20.297

> <PUBCHEM_SHAPE_FINGERPRINT>
11578080 2 16054612070906576867
11582403 64 16263130972132964824
116883 192 18054786445198742855
12138202 97 18272656731568958140
121448 382 18271233950695879165
12363563 72 17836081543699463542
12500047 106 18411702063276768828
12532896 13 18412260605934237981
12730499 353 17979365166468064033
12788726 201 18118130387885083351
13052359 8 18408879659609006419
13149001 5 18130218349933350217
13538477 17 18114468954314609024
13681431 1 17331682856299114023
14178000 22 18337379444730565600
14178342 30 18262788670987322802
15852999 172 18200881669143438444
15885798 251 18051138295677934507
15906896 17 18187657924084219475
16752209 62 18336259141155501915
16945 1 18337952406099545727
17357779 13 17772175660170826903
18186145 218 17916026763392716752
19868273 293 18409737248555923804
20097449 115 17835523000097190099
20361792 2 17766850798240569822
20567600 347 18265055730629763361
20600515 1 17250283695402398765
20645476 183 18260838080860447684
20711985 344 18265331883688573546
21285901 2 17987524873795186039
21524375 3 18267026059271244257
23419403 2 16772092873163321323
23557571 272 18199470042459033300
23559900 14 18130511856267997284
2748010 2 18122371015328642467
298252 57 18261116218658346712
3060560 45 18263643961499398533
3071541 236 18411980264929146360
458136 41 18051991224822322833
6049 1 17702398419253365784
633830 44 17773321131948991505
7364860 26 17619344308308840993
7615 1 17895474864409184436
81228 2 18268997668387752283
81539 233 18044936775408872101
88987 49 18409733993260883308

> <PUBCHEM_SHAPE_MULTIPOLES>
360.47
6.01
3.78
1.33
4.65
1.95
0.03
-3.54
0.94
-5.18
-0.03
0.45
0.17
0.13

> <PUBCHEM_SHAPE_SELFOVERLAP>
755.068

> <PUBCHEM_SHAPE_VOLUME>
203

> <PUBCHEM_COORDINATE_TYPE>
2
5
10

$$$$
