56959
  -OEChem-03022010183D

 64 66  0     1  0  0  0  0  0999 V2000
   -5.4972    2.5115   -1.1596 O   0  0  0  0  0  0  0  0  0  0  0  0
   -4.8161   -0.0367   -0.2796 O   0  0  0  0  0  0  0  0  0  0  0  0
    3.6118    2.2189   -0.5905 O   0  0  0  0  0  0  0  0  0  0  0  0
   -2.8289   -1.5111   -1.5539 O   0  0  0  0  0  0  0  0  0  0  0  0
   -1.9315    1.9966   -0.2847 N   0  0  0  0  0  0  0  0  0  0  0  0
    0.8472    2.4012    0.4040 N   0  0  0  0  0  0  0  0  0  0  0  0
    3.5354    0.3562    0.8366 N   0  0  0  0  0  0  0  0  0  0  0  0
   -0.8541    1.3891   -1.0756 C   0  0  0  0  0  0  0  0  0  0  0  0
   -1.4728    3.2489    0.3288 C   0  0  0  0  0  0  0  0  0  0  0  0
    0.3887    1.1496   -0.2115 C   0  0  0  0  0  0  0  0  0  0  0  0
   -0.2306    3.0091    1.1940 C   0  0  0  0  0  0  0  0  0  0  0  0
   -3.1154    2.2261   -1.1102 C   0  0  0  0  0  0  0  0  0  0  0  0
    2.0301    2.1703    1.2308 C   0  0  0  0  0  0  0  0  0  0  0  0
   -4.3914    2.3266   -0.2710 C   0  0  2  0  0  0  0  0  0  0  0  0
   -4.6542    1.0866    0.5808 C   0  0  0  0  0  0  0  0  0  0  0  0
    3.1479    1.6100    0.3683 C   0  0  0  0  0  0  0  0  0  0  0  0
    4.5402   -0.4896    0.3094 C   0  0  0  0  0  0  0  0  0  0  0  0
   -4.4223   -1.2516    0.2141 C   0  0  0  0  0  0  0  0  0  0  0  0
    5.8614   -0.0472    0.2448 C   0  0  0  0  0  0  0  0  0  0  0  0
    4.2093   -1.7665   -0.1449 C   0  0  0  0  0  0  0  0  0  0  0  0
    6.8517   -0.8814   -0.2739 C   0  0  0  0  0  0  0  0  0  0  0  0
    5.1997   -2.6006   -0.6635 C   0  0  0  0  0  0  0  0  0  0  0  0
   -3.4266   -1.9887   -0.4270 C   0  0  0  0  0  0  0  0  0  0  0  0
    6.2472    1.3151    0.7234 C   0  0  0  0  0  0  0  0  0  0  0  0
    2.8031   -2.2694   -0.0883 C   0  0  0  0  0  0  0  0  0  0  0  0
   -5.0261   -1.7512    1.3681 C   0  0  0  0  0  0  0  0  0  0  0  0
    6.5208   -2.1581   -0.7281 C   0  0  0  0  0  0  0  0  0  0  0  0
   -3.0347   -3.2253    0.0861 C   0  0  0  0  0  0  0  0  0  0  0  0
   -4.6340   -2.9877    1.8811 C   0  0  0  0  0  0  0  0  0  0  0  0
   -3.6385   -3.7247    1.2401 C   0  0  0  0  0  0  0  0  0  0  0  0
   -1.8204   -2.3261   -2.1480 C   0  0  0  0  0  0  0  0  0  0  0  0
   -0.5919    2.0286   -1.9296 H   0  0  0  0  0  0  0  0  0  0  0  0
   -1.1763    0.4271   -1.4812 H   0  0  0  0  0  0  0  0  0  0  0  0
   -2.2507    3.6688    0.9758 H   0  0  0  0  0  0  0  0  0  0  0  0
   -1.2444    4.0020   -0.4377 H   0  0  0  0  0  0  0  0  0  0  0  0
    1.1536    0.7302   -0.8742 H   0  0  0  0  0  0  0  0  0  0  0  0
    0.1657    0.3934    0.5537 H   0  0  0  0  0  0  0  0  0  0  0  0
   -0.4953    2.3741    2.0504 H   0  0  0  0  0  0  0  0  0  0  0  0
    0.1030    3.9744    1.5939 H   0  0  0  0  0  0  0  0  0  0  0  0
   -3.0067    3.1175   -1.7432 H   0  0  0  0  0  0  0  0  0  0  0  0
   -3.2516    1.4002   -1.8221 H   0  0  0  0  0  0  0  0  0  0  0  0
    2.4003    3.1190    1.6390 H   0  0  0  0  0  0  0  0  0  0  0  0
    1.8064    1.5185    2.0841 H   0  0  0  0  0  0  0  0  0  0  0  0
   -4.3538    3.2101    0.3749 H   0  0  0  0  0  0  0  0  0  0  0  0
   -3.8422    0.9318    1.3021 H   0  0  0  0  0  0  0  0  0  0  0  0
   -5.5901    1.2155    1.1370 H   0  0  0  0  0  0  0  0  0  0  0  0
   -6.2982    2.6027   -0.6157 H   0  0  0  0  0  0  0  0  0  0  0  0
    2.8247   -0.1365    1.3733 H   0  0  0  0  0  0  0  0  0  0  0  0
    7.8852   -0.5501   -0.3331 H   0  0  0  0  0  0  0  0  0  0  0  0
    4.9600   -3.5984   -1.0213 H   0  0  0  0  0  0  0  0  0  0  0  0
    6.1068    2.0569   -0.0677 H   0  0  0  0  0  0  0  0  0  0  0  0
    7.3050    1.3382    1.0111 H   0  0  0  0  0  0  0  0  0  0  0  0
    5.6903    1.6134    1.6172 H   0  0  0  0  0  0  0  0  0  0  0  0
    2.4708   -2.3645    0.9506 H   0  0  0  0  0  0  0  0  0  0  0  0
    2.1291   -1.5952   -0.6263 H   0  0  0  0  0  0  0  0  0  0  0  0
    2.7056   -3.2565   -0.5536 H   0  0  0  0  0  0  0  0  0  0  0  0
   -5.8087   -1.1921    1.8737 H   0  0  0  0  0  0  0  0  0  0  0  0
    7.2919   -2.8074   -1.1324 H   0  0  0  0  0  0  0  0  0  0  0  0
   -2.2685   -3.8516   -0.3577 H   0  0  0  0  0  0  0  0  0  0  0  0
   -5.1053   -3.3775    2.7786 H   0  0  0  0  0  0  0  0  0  0  0  0
   -3.3342   -4.6876    1.6404 H   0  0  0  0  0  0  0  0  0  0  0  0
   -1.4570   -1.7946   -3.0338 H   0  0  0  0  0  0  0  0  0  0  0  0
   -2.2263   -3.2821   -2.4956 H   0  0  0  0  0  0  0  0  0  0  0  0
   -0.9614   -2.4549   -1.4804 H   0  0  0  0  0  0  0  0  0  0  0  0
  1 14  1  0  0  0  0
  1 47  1  0  0  0  0
  2 15  1  0  0  0  0
  2 18  1  0  0  0  0
  3 16  2  0  0  0  0
  4 23  1  0  0  0  0
  4 31  1  0  0  0  0
  5  8  1  0  0  0  0
  5  9  1  0  0  0  0
  5 12  1  0  0  0  0
  6 10  1  0  0  0  0
  6 11  1  0  0  0  0
  6 13  1  0  0  0  0
  7 16  1  0  0  0  0
  7 17  1  0  0  0  0
  7 48  1  0  0  0  0
  8 10  1  0  0  0  0
  8 32  1  0  0  0  0
  8 33  1  0  0  0  0
  9 11  1  0  0  0  0
  9 34  1  0  0  0  0
  9 35  1  0  0  0  0
 10 36  1  0  0  0  0
 10 37  1  0  0  0  0
 11 38  1  0  0  0  0
 11 39  1  0  0  0  0
 12 14  1  0  0  0  0
 12 40  1  0  0  0  0
 12 41  1  0  0  0  0
 13 16  1  0  0  0  0
 13 42  1  0  0  0  0
 13 43  1  0  0  0  0
 14 15  1  0  0  0  0
 14 44  1  0  0  0  0
 15 45  1  0  0  0  0
 15 46  1  0  0  0  0
 17 19  2  0  0  0  0
 17 20  1  0  0  0  0
 18 23  1  0  0  0  0
 18 26  2  0  0  0  0
 19 21  1  0  0  0  0
 19 24  1  0  0  0  0
 20 22  2  0  0  0  0
 20 25  1  0  0  0  0
 21 27  2  0  0  0  0
 21 49  1  0  0  0  0
 22 27  1  0  0  0  0
 22 50  1  0  0  0  0
 23 28  2  0  0  0  0
 24 51  1  0  0  0  0
 24 52  1  0  0  0  0
 24 53  1  0  0  0  0
 25 54  1  0  0  0  0
 25 55  1  0  0  0  0
 25 56  1  0  0  0  0
 26 29  1  0  0  0  0
 26 57  1  0  0  0  0
 27 58  1  0  0  0  0
 28 30  1  0  0  0  0
 28 59  1  0  0  0  0
 29 30  2  0  0  0  0
 29 60  1  0  0  0  0
 30 61  1  0  0  0  0
 31 62  1  0  0  0  0
 31 63  1  0  0  0  0
 31 64  1  0  0  0  0
M  END
> <PUBCHEM_COMPOUND_CID>
56959

> <PUBCHEM_CONFORMER_RMSD>
1.4

> <PUBCHEM_CONFORMER_DIVERSEORDER>
2
45
30
48
17
6
33
21
51
24
27
40
38
23
43
25
29
16
37
9
18
46
12
19
50
28
15
47
35
42
7
32
49
4
20
31
11
3
10
34
8
26
39
14
22
36
52
5
13
44
1
41

> <PUBCHEM_MMFF94_PARTIAL_CHARGES>
40
1 -0.68
10 0.27
11 0.27
12 0.27
13 0.33
14 0.28
15 0.28
16 0.57
17 0.12
18 0.08
19 -0.14
2 -0.36
20 -0.14
21 -0.15
22 -0.15
23 0.08
24 0.14
25 0.14
26 -0.15
27 -0.15
28 -0.15
29 -0.15
3 -0.57
30 -0.15
31 0.28
4 -0.36
47 0.4
48 0.37
49 0.15
5 -0.81
50 0.15
57 0.15
58 0.15
59 0.15
6 -0.81
60 0.15
61 0.15
7 -0.55
8 0.27
9 0.27

> <PUBCHEM_EFFECTIVE_ROTOR_COUNT>
11.2

> <PUBCHEM_PHARMACOPHORE_FEATURES>
11
1 1 acceptor
1 1 donor
1 2 acceptor
1 3 acceptor
1 4 acceptor
1 5 cation
1 6 cation
1 7 donor
6 17 19 20 21 22 27 rings
6 18 23 26 28 29 30 rings
6 5 6 8 9 10 11 rings

> <PUBCHEM_HEAVY_ATOM_COUNT>
31

> <PUBCHEM_ATOM_DEF_STEREO_COUNT>
0

> <PUBCHEM_ATOM_UDEF_STEREO_COUNT>
1

> <PUBCHEM_BOND_DEF_STEREO_COUNT>
0

> <PUBCHEM_BOND_UDEF_STEREO_COUNT>
0

> <PUBCHEM_ISOTOPIC_ATOM_COUNT>
0

> <PUBCHEM_COMPONENT_COUNT>
1

> <PUBCHEM_CACTVS_TAUTO_COUNT>
2

> <PUBCHEM_CONFORMER_ID>
0000DE7F00000002

> <PUBCHEM_MMFF94_ENERGY>
109.992

> <PUBCHEM_FEATURE_SELFOVERLAP>
55.832

> <PUBCHEM_SHAPE_FINGERPRINT>
10010297 198 17978514470247084493
10391435 84 18411410709928311176
10462674 125 14972594871461331310
10462674 296 17696460059725644790
10864689 126 18120092775975968438
10928967 22 17984989455420074085
11135609 12 18261679267596345713
11135609 99 18269271271729035726
11524674 6 17917704674408686605
117089 54 18191316068148173171
11756154 5 18340763754737740392
12422481 6 17918278666559664206
12643181 29 18336260146277848568
13402501 40 18342737377629810166
14251751 18 18407764729027519364
14251757 5 18336264548645928171
14279260 333 18262232219404661098
14461889 52 18342725331269860376
14950920 106 16988003932923489147
15064986 96 17845674619865090631
15230672 131 18044087952057786834
15274700 232 17192082860892099854
15351339 4 18114734945650012099
15361156 5 18342172258892004140
15721738 202 17896048792267164790
15799311 1 18336564766844087668
16110190 28 18341902913029361979
16112460 7 17983586208485570849
17627616 140 17972594386232033619
18608769 82 18411981382480434416
20721686 56 18411417353889471607
21196832 93 18409177614839416478
23559900 14 18411129234340190192
3383291 50 18340758296267395215
338550 245 18408886252536676532
354706 132 17604156930578518814
3737641 26 18267024036494505304
373842 8 17909545065391370718
4058900 60 17617091413442766301
4073 2 18410289207957216008
437795 96 18342462516971956919
4435113 14 18341062856160636902
469060 322 16732704921892653518
484989 97 18340776971033007682
4874694 18 18339062848820445456
508706 21 18335411374877918067
513202 73 18260838145912698571
54583773 228 18335711551471395566
56633871 153 18122071068552777563
6009941 240 18261108547951899959
6431902 208 18338232768864479458
6437827 68 18411699859341400108

> <PUBCHEM_SHAPE_MULTIPOLES>
599.55
16.85
5
1.39
17.29
0.64
0.12
7.79
-0.86
-4.47
-0.59
-1.47
0.55
3.09

> <PUBCHEM_SHAPE_SELFOVERLAP>
1251.796

> <PUBCHEM_SHAPE_VOLUME>
340.8

> <PUBCHEM_COORDINATE_TYPE>
2
5
10

$$$$
