4636
  -OEChem-03022012593D

 43 44  0     0  0  0  0  0  0999 V2000
   -2.1680   -2.1606    0.0819 O   0  0  0  0  0  0  0  0  0  0  0  0
    3.9454    0.8751    0.0431 N   0  0  0  0  0  0  0  0  0  0  0  0
    2.9022   -1.0410   -0.6435 N   0  0  0  0  0  0  0  0  0  0  0  0
   -3.4522    0.3014   -0.5202 C   0  0  0  0  0  0  0  0  0  0  0  0
   -1.9997    0.2191   -0.0222 C   0  0  0  0  0  0  0  0  0  0  0  0
    0.5967    0.1104    0.8627 C   0  0  0  0  0  0  0  0  0  0  0  0
   -1.4524   -1.0108    0.2455 C   0  0  0  0  0  0  0  0  0  0  0  0
   -0.1331   -1.0664    0.6951 C   0  0  0  0  0  0  0  0  0  0  0  0
    0.0075    1.3427    0.5804 C   0  0  0  0  0  0  0  0  0  0  0  0
   -1.3118    1.3983    0.1309 C   0  0  0  0  0  0  0  0  0  0  0  0
   -3.8391    1.7781   -0.7517 C   0  0  0  0  0  0  0  0  0  0  0  0
   -4.3985   -0.3122    0.5344 C   0  0  0  0  0  0  0  0  0  0  0  0
   -3.7012   -0.4491   -1.8481 C   0  0  0  0  0  0  0  0  0  0  0  0
    2.0114    0.0527    1.3456 C   0  0  0  0  0  0  0  0  0  0  0  0
    2.9732   -0.0563    0.2088 C   0  0  0  0  0  0  0  0  0  0  0  0
    0.4928   -2.3908    0.9969 C   0  0  0  0  0  0  0  0  0  0  0  0
    0.7662    2.6178    0.7540 C   0  0  0  0  0  0  0  0  0  0  0  0
    4.7281    0.5411   -1.1096 C   0  0  0  0  0  0  0  0  0  0  0  0
    4.0325   -0.7495   -1.5842 C   0  0  0  0  0  0  0  0  0  0  0  0
   -1.7075    2.3842   -0.0694 H   0  0  0  0  0  0  0  0  0  0  0  0
   -4.8798    1.8411   -1.0973 H   0  0  0  0  0  0  0  0  0  0  0  0
   -3.8050    2.3748    0.1680 H   0  0  0  0  0  0  0  0  0  0  0  0
   -3.2400    2.2569   -1.5358 H   0  0  0  0  0  0  0  0  0  0  0  0
   -4.2192    0.1226    1.5252 H   0  0  0  0  0  0  0  0  0  0  0  0
   -5.4453   -0.1086    0.2770 H   0  0  0  0  0  0  0  0  0  0  0  0
   -4.3140   -1.3978    0.6296 H   0  0  0  0  0  0  0  0  0  0  0  0
   -4.7232   -0.2842   -2.2095 H   0  0  0  0  0  0  0  0  0  0  0  0
   -3.0131   -0.0974   -2.6260 H   0  0  0  0  0  0  0  0  0  0  0  0
   -3.5682   -1.5312   -1.7640 H   0  0  0  0  0  0  0  0  0  0  0  0
    2.2596    0.9377    1.9426 H   0  0  0  0  0  0  0  0  0  0  0  0
    2.1850   -0.7655    2.0518 H   0  0  0  0  0  0  0  0  0  0  0  0
    0.0994   -2.7768    1.9438 H   0  0  0  0  0  0  0  0  0  0  0  0
    0.2651   -3.1100    0.2010 H   0  0  0  0  0  0  0  0  0  0  0  0
    1.5795   -2.4076    1.0664 H   0  0  0  0  0  0  0  0  0  0  0  0
    1.0049    2.7879    1.8087 H   0  0  0  0  0  0  0  0  0  0  0  0
    1.6840    2.6156    0.1591 H   0  0  0  0  0  0  0  0  0  0  0  0
    0.1837    3.4836    0.4187 H   0  0  0  0  0  0  0  0  0  0  0  0
    5.7736    0.3579   -0.8450 H   0  0  0  0  0  0  0  0  0  0  0  0
    4.6771    1.3258   -1.8700 H   0  0  0  0  0  0  0  0  0  0  0  0
    4.1144    1.6851    0.6264 H   0  0  0  0  0  0  0  0  0  0  0  0
    3.6379   -0.6301   -2.5989 H   0  0  0  0  0  0  0  0  0  0  0  0
    4.7314   -1.5928   -1.5842 H   0  0  0  0  0  0  0  0  0  0  0  0
   -1.7609   -2.8947    0.5676 H   0  0  0  0  0  0  0  0  0  0  0  0
  1  7  1  0  0  0  0
  1 43  1  0  0  0  0
  2 15  1  0  0  0  0
  2 18  1  0  0  0  0
  2 40  1  0  0  0  0
  3 15  2  0  0  0  0
  3 19  1  0  0  0  0
  4  5  1  0  0  0  0
  4 11  1  0  0  0  0
  4 12  1  0  0  0  0
  4 13  1  0  0  0  0
  5  7  2  0  0  0  0
  5 10  1  0  0  0  0
  6  8  2  0  0  0  0
  6  9  1  0  0  0  0
  6 14  1  0  0  0  0
  7  8  1  0  0  0  0
  8 16  1  0  0  0  0
  9 10  2  0  0  0  0
  9 17  1  0  0  0  0
 10 20  1  0  0  0  0
 11 21  1  0  0  0  0
 11 22  1  0  0  0  0
 11 23  1  0  0  0  0
 12 24  1  0  0  0  0
 12 25  1  0  0  0  0
 12 26  1  0  0  0  0
 13 27  1  0  0  0  0
 13 28  1  0  0  0  0
 13 29  1  0  0  0  0
 14 15  1  0  0  0  0
 14 30  1  0  0  0  0
 14 31  1  0  0  0  0
 16 32  1  0  0  0  0
 16 33  1  0  0  0  0
 16 34  1  0  0  0  0
 17 35  1  0  0  0  0
 17 36  1  0  0  0  0
 17 37  1  0  0  0  0
 18 19  1  0  0  0  0
 18 38  1  0  0  0  0
 18 39  1  0  0  0  0
 19 41  1  0  0  0  0
 19 42  1  0  0  0  0
M  END
> <PUBCHEM_COMPOUND_CID>
4636

> <PUBCHEM_CONFORMER_RMSD>
0.6

> <PUBCHEM_CONFORMER_DIVERSEORDER>
2
3
5
6
1
4

> <PUBCHEM_MMFF94_PARTIAL_CHARGES>
19
1 -0.53
10 -0.15
14 0.2
15 0.44
16 0.14
17 0.14
18 0.37
19 0.25
2 -0.82
20 0.15
3 -0.7
4 0.14
40 0.4
43 0.45
5 -0.14
6 -0.14
7 0.08
8 -0.14
9 -0.14

> <PUBCHEM_EFFECTIVE_ROTOR_COUNT>
3.6

> <PUBCHEM_PHARMACOPHORE_FEATURES>
6
1 1 donor
1 2 donor
3 2 3 15 cation
4 4 11 12 13 hydrophobe
5 2 3 15 18 19 rings
6 5 6 7 8 9 10 rings

> <PUBCHEM_HEAVY_ATOM_COUNT>
19

> <PUBCHEM_ATOM_DEF_STEREO_COUNT>
0

> <PUBCHEM_ATOM_UDEF_STEREO_COUNT>
0

> <PUBCHEM_BOND_DEF_STEREO_COUNT>
0

> <PUBCHEM_BOND_UDEF_STEREO_COUNT>
0

> <PUBCHEM_ISOTOPIC_ATOM_COUNT>
0

> <PUBCHEM_COMPONENT_COUNT>
1

> <PUBCHEM_CACTVS_TAUTO_COUNT>
12

> <PUBCHEM_CONFORMER_ID>
0000121C00000002

> <PUBCHEM_MMFF94_ENERGY>
78.3026

> <PUBCHEM_FEATURE_SELFOVERLAP>
30.446

> <PUBCHEM_SHAPE_FINGERPRINT>
10465860 71 18342738528802312604
10498660 4 18260265218117473044
11640471 11 17095249141956291726
11796584 16 15123785202218984117
12119455 92 13117998924456436256
12236239 1 17531240648245056280
12403814 3 16805600369929437271
12553582 1 18341323436015366561
12670546 177 18338794619163673348
13140716 1 18192980733326395425
13583140 156 16298678269084856888
14420673 8 10301052256600304060
14790565 3 18338246968206370953
14911166 2 18411414020894148897
15209294 21 12108055648762651983
15375358 24 18342451591049136376
15475509 8 17844829000638553601
16945 1 18337090329365309595
17959699 21 18040724705424624972
1813 80 14261364556949151880
18186145 218 18408882962090671456
19765921 60 17603864477116338274
19784866 34 18259983738845385763
19862831 5 18412542076610804004
200 152 16845579686541592374
20374829 77 17917427588635175462
20645476 183 17748829643678862162
20645477 70 17060621114050325668
20871999 31 18410015476347324766
21069387 34 15410603818230515853
21475661 188 13912315798159212998
21637258 2 15267057000472717268
22182313 1 18047742982385553537
22854114 59 11818992989257844156
23227448 37 17751371796419619876
2334 1 17903904901425994081
23379529 103 17485633073149850711
23402539 116 18411131421063248652
23419403 2 16012732746789071937
23493267 7 17676206840671423907
23503958 8 16200141145315831967
23557571 272 18266186200244931706
23559900 14 18412546535804943024
23566358 2 18049158066392725893
25 1 18261105257933221715
2748010 2 18047459308443590121
3323516 105 18342457040792753635
3759504 43 17531251681309573795
394222 165 17531520962884297778
4028521 119 18335707126357257492
465052 167 12175328258396301069
474 4 14562539500304884774
4990 188 18201996616482723342
633830 44 18412819188217500005
7364860 26 17985821768580049480
9709674 26 18200867503956362424

> <PUBCHEM_SHAPE_MULTIPOLES>
375.18
8.38
2.12
1.35
2.16
0.11
-0.41
0.66
-4.29
-0.4
0.5
0.33
-0.16
0.36

> <PUBCHEM_SHAPE_SELFOVERLAP>
792.424

> <PUBCHEM_SHAPE_VOLUME>
214.8

> <PUBCHEM_COORDINATE_TYPE>
2
5
10

$$$$
