4688
  -OEChem-03022013293D

 25 25  0     1  0  0  0  0  0999 V2000
   -1.3584   -0.1102    0.1542 N   0  0  1  0  0  0  0  0  0  0  0  0
   -0.2863   -0.3383    1.1224 C   0  0  0  0  0  0  0  0  0  0  0  0
    1.0753   -0.1880    0.4974 C   0  0  0  0  0  0  0  0  0  0  0  0
   -2.6641   -0.3216    0.7779 C   0  0  0  0  0  0  0  0  0  0  0  0
   -1.2688    1.2407   -0.3989 C   0  0  0  0  0  0  0  0  0  0  0  0
    1.6947   -1.2951   -0.0655 C   0  0  0  0  0  0  0  0  0  0  0  0
    1.6916    1.0556    0.4925 C   0  0  0  0  0  0  0  0  0  0  0  0
    2.9559   -1.1560   -0.6446 C   0  0  0  0  0  0  0  0  0  0  0  0
    2.9528    1.1946   -0.0869 C   0  0  0  0  0  0  0  0  0  0  0  0
    3.5850    0.0888   -0.6554 C   0  0  0  0  0  0  0  0  0  0  0  0
   -3.7445   -0.1534   -0.1987 C   0  0  0  0  0  0  0  0  0  0  0  0
   -4.6333   -0.0170   -0.9945 C   0  0  0  0  0  0  0  0  0  0  0  0
   -0.3667   -1.3528    1.5361 H   0  0  0  0  0  0  0  0  0  0  0  0
   -0.3714    0.3389    1.9841 H   0  0  0  0  0  0  0  0  0  0  0  0
   -2.7201   -1.3410    1.1797 H   0  0  0  0  0  0  0  0  0  0  0  0
   -2.8171    0.3653    1.6203 H   0  0  0  0  0  0  0  0  0  0  0  0
   -0.3868    1.3633   -1.0348 H   0  0  0  0  0  0  0  0  0  0  0  0
   -1.2640    2.0126    0.3800 H   0  0  0  0  0  0  0  0  0  0  0  0
   -2.0948    1.4720   -1.0800 H   0  0  0  0  0  0  0  0  0  0  0  0
    1.2132   -2.2689   -0.0646 H   0  0  0  0  0  0  0  0  0  0  0  0
    1.2191    1.9234    0.9439 H   0  0  0  0  0  0  0  0  0  0  0  0
    3.4480   -2.0169   -1.0878 H   0  0  0  0  0  0  0  0  0  0  0  0
    3.4442    2.1632   -0.0925 H   0  0  0  0  0  0  0  0  0  0  0  0
    4.5673    0.1970   -1.1059 H   0  0  0  0  0  0  0  0  0  0  0  0
   -5.4211    0.1044   -1.7006 H   0  0  0  0  0  0  0  0  0  0  0  0
  1  2  1  0  0  0  0
  1  4  1  0  0  0  0
  1  5  1  0  0  0  0
  2  3  1  0  0  0  0
  2 13  1  0  0  0  0
  2 14  1  0  0  0  0
  3  6  2  0  0  0  0
  3  7  1  0  0  0  0
  4 11  1  0  0  0  0
  4 15  1  0  0  0  0
  4 16  1  0  0  0  0
  5 17  1  0  0  0  0
  5 18  1  0  0  0  0
  5 19  1  0  0  0  0
  6  8  1  0  0  0  0
  6 20  1  0  0  0  0
  7  9  2  0  0  0  0
  7 21  1  0  0  0  0
  8 10  2  0  0  0  0
  8 22  1  0  0  0  0
  9 10  1  0  0  0  0
  9 23  1  0  0  0  0
 10 24  1  0  0  0  0
 11 12  3  0  0  0  0
 12 25  1  0  0  0  0
M  END
> <PUBCHEM_COMPOUND_CID>
4688

> <PUBCHEM_CONFORMER_RMSD>
0.6

> <PUBCHEM_CONFORMER_DIVERSEORDER>
1
13
6
14
9
12
15
16
3
5
7
2
11
10
8
4

> <PUBCHEM_MMFF94_PARTIAL_CHARGES>
18
1 -0.81
10 -0.15
11 -0.2
12 -0.18
2 0.41
20 0.15
21 0.15
22 0.15
23 0.15
24 0.15
25 0.18
3 -0.14
4 0.47
5 0.27
6 -0.15
7 -0.15
8 -0.15
9 -0.15

> <PUBCHEM_EFFECTIVE_ROTOR_COUNT>
3

> <PUBCHEM_PHARMACOPHORE_FEATURES>
3
1 1 cation
1 12 hydrophobe
6 3 6 7 8 9 10 rings

> <PUBCHEM_HEAVY_ATOM_COUNT>
12

> <PUBCHEM_ATOM_DEF_STEREO_COUNT>
0

> <PUBCHEM_ATOM_UDEF_STEREO_COUNT>
0

> <PUBCHEM_BOND_DEF_STEREO_COUNT>
0

> <PUBCHEM_BOND_UDEF_STEREO_COUNT>
0

> <PUBCHEM_ISOTOPIC_ATOM_COUNT>
0

> <PUBCHEM_COMPONENT_COUNT>
1

> <PUBCHEM_CACTVS_TAUTO_COUNT>
1

> <PUBCHEM_CONFORMER_ID>
0000125000000001

> <PUBCHEM_MMFF94_ENERGY>
32.4597

> <PUBCHEM_FEATURE_SELFOVERLAP>
15.223

> <PUBCHEM_SHAPE_FINGERPRINT>
11062470 55 14779264219986297781
11471102 20 18412827997258474148
11543360 7 18272082851129327903
12251169 10 9727628397522784186
12897270 3 18334861618810569226
13581323 91 13039185900875666945
13675066 3 10447932784848413291
14251717 144 18272369771602590358
14993402 34 17846219977030418189
15477762 27 18131072615054952614
177051 138 15123787392588793023
18186145 218 18040438772018114017
18915474 69 17489582402756830575
19026448 5 17418102013700401665
19422 9 17060066929724300115
200 152 18059856151416953787
20201158 50 18408610257579526138
20279233 1 18187085069978327011
20361792 2 16128366060909294153
20606313 2 18335702775539906572
20645477 70 18412263900333013855
20767249 442 16443060599630687007
21119208 17 18342176674086456095
21501502 16 18192715544348822880
22485316 2 16917345931166969543
23402539 116 17822284730086018022
23402655 69 18412545392452267693
3060560 45 18411979169860478030
42 15 10952054467894501293
465052 167 15913042192562241189
522135 26 18202281394653313967
581208 293 18343016718197412224

> <PUBCHEM_SHAPE_MULTIPOLES>
241.97
7.66
1.24
0.99
6.2
0.08
-0.05
-0.23
2.69
-0.89
0.08
0.29
-0.06
0.32

> <PUBCHEM_SHAPE_SELFOVERLAP>
488.978

> <PUBCHEM_SHAPE_VOLUME>
142

> <PUBCHEM_COORDINATE_TYPE>
2
5
10

$$$$
