5073
  -OEChem-03022009313D

 57 61  0     0  0  0  0  0  0999 V2000
    9.1912   -1.7833    0.1494 F   0  0  0  0  0  0  0  0  0  0  0  0
    5.9523    1.6240   -0.8664 O   0  0  0  0  0  0  0  0  0  0  0  0
   -3.4414   -1.6400   -0.7533 O   0  0  0  0  0  0  0  0  0  0  0  0
   -0.0457    1.0186    0.3337 N   0  0  0  0  0  0  0  0  0  0  0  0
   -5.5809   -0.9340   -0.1628 N   0  0  0  0  0  0  0  0  0  0  0  0
    4.5766    1.7000   -0.6866 N   0  0  0  0  0  0  0  0  0  0  0  0
   -5.9808    1.3684    0.2111 N   0  0  0  0  0  0  0  0  0  0  0  0
    2.7915    0.2812    0.2236 C   0  0  0  0  0  0  0  0  0  0  0  0
    1.8840    0.2594   -1.0172 C   0  0  0  0  0  0  0  0  0  0  0  0
    2.2360    1.2730    1.2586 C   0  0  0  0  0  0  0  0  0  0  0  0
    0.4228    0.0153   -0.6318 C   0  0  0  0  0  0  0  0  0  0  0  0
    0.7618    0.9922    1.5608 C   0  0  0  0  0  0  0  0  0  0  0  0
   -1.4587    0.8058    0.6469 C   0  0  0  0  0  0  0  0  0  0  0  0
    4.2410    0.5438   -0.1178 C   0  0  0  0  0  0  0  0  0  0  0  0
   -2.2894    0.8902   -0.6257 C   0  0  0  0  0  0  0  0  0  0  0  0
   -3.7445    0.6692   -0.3305 C   0  0  0  0  0  0  0  0  0  0  0  0
    5.3374   -0.3053    0.0907 C   0  0  0  0  0  0  0  0  0  0  0  0
   -6.1085   -2.2907   -0.3388 C   0  0  0  0  0  0  0  0  0  0  0  0
   -7.4615   -2.5340    0.3033 C   0  0  0  0  0  0  0  0  0  0  0  0
   -6.3969    0.1440    0.1301 C   0  0  0  0  0  0  0  0  0  0  0  0
   -8.4041   -1.4136   -0.0860 C   0  0  0  0  0  0  0  0  0  0  0  0
   -7.8599   -0.1049    0.4478 C   0  0  0  0  0  0  0  0  0  0  0  0
   -4.2236   -0.7450   -0.4347 C   0  0  0  0  0  0  0  0  0  0  0  0
   -4.6495    1.6171   -0.0177 C   0  0  0  0  0  0  0  0  0  0  0  0
    6.4036    0.4267   -0.4020 C   0  0  0  0  0  0  0  0  0  0  0  0
    5.5750   -1.5810    0.6232 C   0  0  0  0  0  0  0  0  0  0  0  0
   -4.2881    3.0703    0.1460 C   0  0  0  0  0  0  0  0  0  0  0  0
    7.7228   -0.0170   -0.4096 C   0  0  0  0  0  0  0  0  0  0  0  0
    6.8926   -2.0600    0.6316 C   0  0  0  0  0  0  0  0  0  0  0  0
    7.9450   -1.2906    0.1243 C   0  0  0  0  0  0  0  0  0  0  0  0
    2.7374   -0.7190    0.6774 H   0  0  0  0  0  0  0  0  0  0  0  0
    2.2161   -0.5248   -1.7092 H   0  0  0  0  0  0  0  0  0  0  0  0
    1.9613    1.2098   -1.5625 H   0  0  0  0  0  0  0  0  0  0  0  0
    2.3399    2.3036    0.8937 H   0  0  0  0  0  0  0  0  0  0  0  0
    2.8171    1.2110    2.1871 H   0  0  0  0  0  0  0  0  0  0  0  0
   -0.1104    0.0665   -1.5834 H   0  0  0  0  0  0  0  0  0  0  0  0
    0.3063   -1.0019   -0.2356 H   0  0  0  0  0  0  0  0  0  0  0  0
    0.6687    0.0242    2.0706 H   0  0  0  0  0  0  0  0  0  0  0  0
    0.4057    1.7618    2.2566 H   0  0  0  0  0  0  0  0  0  0  0  0
   -1.7950    1.5760    1.3525 H   0  0  0  0  0  0  0  0  0  0  0  0
   -1.6082   -0.1661    1.1365 H   0  0  0  0  0  0  0  0  0  0  0  0
   -2.1400    1.8622   -1.1128 H   0  0  0  0  0  0  0  0  0  0  0  0
   -2.0087    0.1567   -1.3849 H   0  0  0  0  0  0  0  0  0  0  0  0
   -5.3801   -3.0122    0.0499 H   0  0  0  0  0  0  0  0  0  0  0  0
   -6.1716   -2.4610   -1.4212 H   0  0  0  0  0  0  0  0  0  0  0  0
   -7.3577   -2.5743    1.3945 H   0  0  0  0  0  0  0  0  0  0  0  0
   -7.8607   -3.5008   -0.0219 H   0  0  0  0  0  0  0  0  0  0  0  0
   -9.4029   -1.5978    0.3244 H   0  0  0  0  0  0  0  0  0  0  0  0
   -8.5024   -1.3656   -1.1773 H   0  0  0  0  0  0  0  0  0  0  0  0
   -7.9568   -0.0793    1.5408 H   0  0  0  0  0  0  0  0  0  0  0  0
   -8.4543    0.7301    0.0585 H   0  0  0  0  0  0  0  0  0  0  0  0
    4.7692   -2.1901    1.0205 H   0  0  0  0  0  0  0  0  0  0  0  0
   -3.2127    3.2609    0.1653 H   0  0  0  0  0  0  0  0  0  0  0  0
   -4.6913    3.4531    1.0906 H   0  0  0  0  0  0  0  0  0  0  0  0
   -4.7206    3.6571   -0.6713 H   0  0  0  0  0  0  0  0  0  0  0  0
    8.5313    0.5857   -0.8047 H   0  0  0  0  0  0  0  0  0  0  0  0
    7.0992   -3.0462    1.0395 H   0  0  0  0  0  0  0  0  0  0  0  0
  1 30  1  0  0  0  0
  2  6  1  0  0  0  0
  2 25  1  0  0  0  0
  3 23  2  0  0  0  0
  4 11  1  0  0  0  0
  4 12  1  0  0  0  0
  4 13  1  0  0  0  0
  5 18  1  0  0  0  0
  5 20  1  0  0  0  0
  5 23  1  0  0  0  0
  6 14  2  0  0  0  0
  7 20  2  0  0  0  0
  7 24  1  0  0  0  0
  8  9  1  0  0  0  0
  8 10  1  0  0  0  0
  8 14  1  0  0  0  0
  8 31  1  0  0  0  0
  9 11  1  0  0  0  0
  9 32  1  0  0  0  0
  9 33  1  0  0  0  0
 10 12  1  0  0  0  0
 10 34  1  0  0  0  0
 10 35  1  0  0  0  0
 11 36  1  0  0  0  0
 11 37  1  0  0  0  0
 12 38  1  0  0  0  0
 12 39  1  0  0  0  0
 13 15  1  0  0  0  0
 13 40  1  0  0  0  0
 13 41  1  0  0  0  0
 14 17  1  0  0  0  0
 15 16  1  0  0  0  0
 15 42  1  0  0  0  0
 15 43  1  0  0  0  0
 16 23  1  0  0  0  0
 16 24  2  0  0  0  0
 17 25  2  0  0  0  0
 17 26  1  0  0  0  0
 18 19  1  0  0  0  0
 18 44  1  0  0  0  0
 18 45  1  0  0  0  0
 19 21  1  0  0  0  0
 19 46  1  0  0  0  0
 19 47  1  0  0  0  0
 20 22  1  0  0  0  0
 21 22  1  0  0  0  0
 21 48  1  0  0  0  0
 21 49  1  0  0  0  0
 22 50  1  0  0  0  0
 22 51  1  0  0  0  0
 24 27  1  0  0  0  0
 25 28  1  0  0  0  0
 26 29  2  0  0  0  0
 26 52  1  0  0  0  0
 27 53  1  0  0  0  0
 27 54  1  0  0  0  0
 27 55  1  0  0  0  0
 28 30  2  0  0  0  0
 28 56  1  0  0  0  0
 29 30  1  0  0  0  0
 29 57  1  0  0  0  0
M  END
> <PUBCHEM_COMPOUND_CID>
5073

> <PUBCHEM_CONFORMER_RMSD>
0.8

> <PUBCHEM_CONFORMER_DIVERSEORDER>
1
105
99
63
7
118
108
9
50
42
109
93
20
64
32
103
16
31
77
97
115
119
2
81
35
95
117
53
10
90
65
47
37
52
59
33
39
56
107
57
121
70
88
110
34
98
84
5
83
101
26
92
79
116
3
112
91
60
4
36
38
55
69
68
89
102
13
22
106
71
80
28
120
85
104
86
21
82
67
51
23
27
17
24
44
111
49
45
30
100
74
113
61
12
62
94
72
58
25
48
75
18
19
66
46
87
114
8
29
15
43
41
6
11
14
73
54
40
78
96
76

> <PUBCHEM_MMFF94_PARTIAL_CHARGES>
28
1 -0.19
11 0.27
12 0.27
13 0.27
14 0.11
15 0.14
16 -0.12
18 0.3
2 -0.02
20 0.45
22 0.06
23 0.62
24 0.03
25 0.14
26 -0.15
27 0.14
28 -0.15
29 -0.15
3 -0.57
30 0.19
4 -0.81
5 -0.42
52 0.15
56 0.15
57 0.15
6 -0.41
7 -0.62
8 0.18

> <PUBCHEM_EFFECTIVE_ROTOR_COUNT>
6

> <PUBCHEM_PHARMACOPHORE_FEATURES>
8
1 3 acceptor
1 4 cation
1 6 acceptor
5 2 6 14 17 25 rings
6 17 25 26 28 29 30 rings
6 4 8 9 10 11 12 rings
6 5 18 19 20 21 22 rings
6 5 7 16 20 23 24 rings

> <PUBCHEM_HEAVY_ATOM_COUNT>
30

> <PUBCHEM_ATOM_DEF_STEREO_COUNT>
0

> <PUBCHEM_ATOM_UDEF_STEREO_COUNT>
0

> <PUBCHEM_BOND_DEF_STEREO_COUNT>
0

> <PUBCHEM_BOND_UDEF_STEREO_COUNT>
0

> <PUBCHEM_ISOTOPIC_ATOM_COUNT>
0

> <PUBCHEM_COMPONENT_COUNT>
1

> <PUBCHEM_CACTVS_TAUTO_COUNT>
1

> <PUBCHEM_CONFORMER_ID>
000013D100000001

> <PUBCHEM_MMFF94_ENERGY>
51.9551

> <PUBCHEM_FEATURE_SELFOVERLAP>
40.725

> <PUBCHEM_SHAPE_FINGERPRINT>
10 15 17632856455689312180
100830 39 18410854318195038021
10299344 5 18409168818013054243
10595046 47 18334859424251573156
11135926 11 16988557966324480549
11315181 36 18334860524485783501
11386260 185 16298394591153433966
11524674 6 16630526263247322359
11646440 116 16056881329804297312
117089 54 17826520161026513931
11719270 70 17917993850283085334
11991303 11 14634880768089591808
12082328 90 18411698768583445213
12166972 35 18335142007430449836
12236239 1 18260267442963292757
125118 31 9727636111590327690
12539765 74 9583518746335734152
12592606 108 18409167680574928930
12741549 16 16845574232619254729
13673619 4 18059574728544821201
13782708 43 17988354970771998311
13885169 127 18411418380032993656
14118638 360 14924212799242492205
14178184 131 18058166305705721687
14251764 18 18410856568261632718
15131766 46 9006182740085390794
15183329 4 17530681000894781754
15198563 99 15358253776362503190
15352257 5 18412545422691365315
1577012 14 16153697683853841045
1818759 1 18202287987924349670
18608769 82 18342739650411405607
19301679 30 17845378739836626854
19841028 212 18266457591361891418
2026 5 18261952934697831850
21130935 74 18339921511994016114
21150785 3 17312821589239393010
21315759 40 18335708238490523597
21315763 28 18408605863796658596
21781051 124 17988652904327573694
21792938 703 17313677061163385067
21792961 116 17917429787426660053
22956985 138 17342113511692420806
23516275 137 18268449948479281002
23522609 53 18195276431637971897
23559900 14 18267859661712459313
23569917 315 18200603501825367806
23569943 247 17242722092498963138
23576562 1 13407658700110914207
249057 25 18261126161418531381
3004659 81 18408319974321145832
3178227 256 17132114658686468818
3383291 50 16702303473103852743
4073 2 17895481435740575146
4098825 35 18334294236435294961
4107672 100 18187921738952396733
4339292 15 17917419957216814711
439807 62 18411982481111321483
44389302 135 18342171112959461074
45377200 153 17386575790329187923
4625314 4 18334012809373397685
5283156 175 18334296474492901997
5937810 71 12613021766036468167
67123 10 18409449202875284292
9831232 110 18267307535008130654
99344 41 18338234865077831050
999808 66 18114752624589496107

> <PUBCHEM_SHAPE_MULTIPOLES>
578.45
29.28
2.4
0.94
10.03
0.2
-0.13
16.32
-0.03
-2.4
-0.16
0.46
-0.16
-1.06

> <PUBCHEM_SHAPE_SELFOVERLAP>
1255.888

> <PUBCHEM_SHAPE_VOLUME>
317

> <PUBCHEM_COORDINATE_TYPE>
2
5
10

$$$$
