92253
  -OEChem-03022012563D

 49 50  0     1  0  0  0  0  0999 V2000
   -0.0083    0.0138    1.4093 O   0  0  0  0  0  0  0  0  0  0  0  0
   -2.3134    0.5416    0.1260 N   0  0  1  0  0  0  0  0  0  0  0  0
    1.2097    0.4591   -0.5542 N   0  0  0  0  0  0  0  0  0  0  0  0
   -1.0687    1.1383   -0.3928 C   0  0  1  0  0  0  0  0  0  0  0  0
   -0.9730    2.6365   -0.0731 C   0  0  0  0  0  0  0  0  0  0  0  0
   -3.4961    1.2545   -0.3896 C   0  0  0  0  0  0  0  0  0  0  0  0
   -2.1943    3.3966   -0.5707 C   0  0  0  0  0  0  0  0  0  0  0  0
   -3.4640    2.7426   -0.0450 C   0  0  0  0  0  0  0  0  0  0  0  0
   -2.4267   -0.8810   -0.2201 C   0  0  0  0  0  0  0  0  0  0  0  0
    0.0945    0.4674    0.2741 C   0  0  0  0  0  0  0  0  0  0  0  0
   -3.7057   -1.4708    0.3714 C   0  0  0  0  0  0  0  0  0  0  0  0
   -3.8544   -2.9478    0.0044 C   0  0  0  0  0  0  0  0  0  0  0  0
    2.4867   -0.0821   -0.2736 C   0  0  0  0  0  0  0  0  0  0  0  0
   -5.1071   -3.5516    0.6189 C   0  0  0  0  0  0  0  0  0  0  0  0
    3.4504    0.7184    0.3217 C   0  0  0  0  0  0  0  0  0  0  0  0
    2.7532   -1.4039   -0.5985 C   0  0  0  0  0  0  0  0  0  0  0  0
    4.7091    0.1848    0.5984 C   0  0  0  0  0  0  0  0  0  0  0  0
    4.0120   -1.9373   -0.3219 C   0  0  0  0  0  0  0  0  0  0  0  0
    3.1800    2.1443    0.6783 C   0  0  0  0  0  0  0  0  0  0  0  0
    1.7263   -2.2803   -1.2396 C   0  0  0  0  0  0  0  0  0  0  0  0
    4.9900   -1.1430    0.2767 C   0  0  0  0  0  0  0  0  0  0  0  0
   -1.0181    0.9961   -1.4812 H   0  0  0  0  0  0  0  0  0  0  0  0
   -0.0709    3.0648   -0.5273 H   0  0  0  0  0  0  0  0  0  0  0  0
   -0.8709    2.7882    1.0104 H   0  0  0  0  0  0  0  0  0  0  0  0
   -4.4220    0.9055    0.0728 H   0  0  0  0  0  0  0  0  0  0  0  0
   -3.5906    1.1294   -1.4763 H   0  0  0  0  0  0  0  0  0  0  0  0
   -2.2059    3.3990   -1.6674 H   0  0  0  0  0  0  0  0  0  0  0  0
   -2.1461    4.4415   -0.2453 H   0  0  0  0  0  0  0  0  0  0  0  0
   -3.5218    2.8729    1.0432 H   0  0  0  0  0  0  0  0  0  0  0  0
   -4.3402    3.2421   -0.4742 H   0  0  0  0  0  0  0  0  0  0  0  0
   -1.5836   -1.4590    0.1726 H   0  0  0  0  0  0  0  0  0  0  0  0
   -2.4238   -1.0170   -1.3099 H   0  0  0  0  0  0  0  0  0  0  0  0
   -4.6093   -0.9926   -0.0149 H   0  0  0  0  0  0  0  0  0  0  0  0
   -3.7047   -1.3555    1.4623 H   0  0  0  0  0  0  0  0  0  0  0  0
   -2.9797   -3.5081    0.3549 H   0  0  0  0  0  0  0  0  0  0  0  0
   -3.8964   -3.0604   -1.0853 H   0  0  0  0  0  0  0  0  0  0  0  0
    1.1671    0.9950   -1.4182 H   0  0  0  0  0  0  0  0  0  0  0  0
   -5.1902   -4.6087    0.3476 H   0  0  0  0  0  0  0  0  0  0  0  0
   -5.0810   -3.4826    1.7111 H   0  0  0  0  0  0  0  0  0  0  0  0
   -6.0063   -3.0385    0.2632 H   0  0  0  0  0  0  0  0  0  0  0  0
    5.4826    0.7891    1.0650 H   0  0  0  0  0  0  0  0  0  0  0  0
    4.2475   -2.9701   -0.5648 H   0  0  0  0  0  0  0  0  0  0  0  0
    2.4091    2.2044    1.4534 H   0  0  0  0  0  0  0  0  0  0  0  0
    4.0745    2.6448    1.0646 H   0  0  0  0  0  0  0  0  0  0  0  0
    2.8517    2.7062   -0.2026 H   0  0  0  0  0  0  0  0  0  0  0  0
    0.8967   -2.4630   -0.5489 H   0  0  0  0  0  0  0  0  0  0  0  0
    1.3402   -1.8179   -2.1542 H   0  0  0  0  0  0  0  0  0  0  0  0
    2.1407   -3.2541   -1.5226 H   0  0  0  0  0  0  0  0  0  0  0  0
    5.9699   -1.5586    0.4925 H   0  0  0  0  0  0  0  0  0  0  0  0
  1 10  2  0  0  0  0
  2  4  1  0  0  0  0
  2  6  1  0  0  0  0
  2  9  1  0  0  0  0
  3 10  1  0  0  0  0
  3 13  1  0  0  0  0
  3 37  1  0  0  0  0
  4  5  1  0  0  0  0
  4 10  1  0  0  0  0
  4 22  1  0  0  0  0
  5  7  1  0  0  0  0
  5 23  1  0  0  0  0
  5 24  1  0  0  0  0
  6  8  1  0  0  0  0
  6 25  1  0  0  0  0
  6 26  1  0  0  0  0
  7  8  1  0  0  0  0
  7 27  1  0  0  0  0
  7 28  1  0  0  0  0
  8 29  1  0  0  0  0
  8 30  1  0  0  0  0
  9 11  1  0  0  0  0
  9 31  1  0  0  0  0
  9 32  1  0  0  0  0
 11 12  1  0  0  0  0
 11 33  1  0  0  0  0
 11 34  1  0  0  0  0
 12 14  1  0  0  0  0
 12 35  1  0  0  0  0
 12 36  1  0  0  0  0
 13 15  2  0  0  0  0
 13 16  1  0  0  0  0
 14 38  1  0  0  0  0
 14 39  1  0  0  0  0
 14 40  1  0  0  0  0
 15 17  1  0  0  0  0
 15 19  1  0  0  0  0
 16 18  2  0  0  0  0
 16 20  1  0  0  0  0
 17 21  2  0  0  0  0
 17 41  1  0  0  0  0
 18 21  1  0  0  0  0
 18 42  1  0  0  0  0
 19 43  1  0  0  0  0
 19 44  1  0  0  0  0
 19 45  1  0  0  0  0
 20 46  1  0  0  0  0
 20 47  1  0  0  0  0
 20 48  1  0  0  0  0
 21 49  1  0  0  0  0
M  END
> <PUBCHEM_COMPOUND_CID>
92253

> <PUBCHEM_CONFORMER_RMSD>
0.8

> <PUBCHEM_CONFORMER_DIVERSEORDER>
1
42
41
18
27
35
37
24
13
23
40
11
44
8
29
21
32
25
33
10
43
30
7
45
6
38
26
4
17
20
36
34
15
22
16
14
19
39
3
28
31
5
9
12
2

> <PUBCHEM_MMFF94_PARTIAL_CHARGES>
19
1 -0.57
10 0.57
13 0.12
15 -0.14
16 -0.14
17 -0.15
18 -0.15
19 0.14
2 -0.81
20 0.14
21 -0.15
3 -0.55
37 0.37
4 0.33
41 0.15
42 0.15
49 0.15
6 0.27
9 0.27

> <PUBCHEM_EFFECTIVE_ROTOR_COUNT>
7.2

> <PUBCHEM_PHARMACOPHORE_FEATURES>
6
1 1 acceptor
1 14 hydrophobe
1 2 cation
1 3 donor
6 13 15 16 17 18 21 rings
6 2 4 5 6 7 8 rings

> <PUBCHEM_HEAVY_ATOM_COUNT>
21

> <PUBCHEM_ATOM_DEF_STEREO_COUNT>
1

> <PUBCHEM_ATOM_UDEF_STEREO_COUNT>
0

> <PUBCHEM_BOND_DEF_STEREO_COUNT>
0

> <PUBCHEM_BOND_UDEF_STEREO_COUNT>
0

> <PUBCHEM_ISOTOPIC_ATOM_COUNT>
0

> <PUBCHEM_COMPONENT_COUNT>
1

> <PUBCHEM_CACTVS_TAUTO_COUNT>
2

> <PUBCHEM_CONFORMER_ID>
0001685D00000001

> <PUBCHEM_MMFF94_ENERGY>
60.5524

> <PUBCHEM_FEATURE_SELFOVERLAP>
30.446

> <PUBCHEM_SHAPE_FINGERPRINT>
10616163 171 18412262809300278102
10688039 33 18262799695947221695
1100329 8 15891375868944265664
11370993 70 18198054777255937718
11405975 8 18340204094428795424
11552529 35 17988925604401001675
12173636 292 17976255738572539237
12403259 226 18411415124890843088
12500047 106 18192991513251436636
12553582 1 18120957237097484215
13140716 1 18413674603858127169
13583140 156 18060126640089120612
14790565 3 16968862749517781621
15042514 8 18408890625119422969
15099037 37 18411134749077516079
15352361 1 18337391668550569747
17349148 13 16877661262201490418
17492 89 18409448094288711002
19141452 34 18337677408371523229
200 152 17416954046236098980
20261772 1 17988081222225968206
20645477 56 18265053518363585485
20645477 70 17345184490079706228
21065198 57 18339078173247524044
21478907 32 18336829792575849147
221490 88 18342177752561155630
23402539 116 18187640293543922012
23557571 272 18411136926657486137
23558518 356 18260835898943539600
23559900 14 18198337365156542490
3421961 26 17978514457915764835
4214541 1 18339359647960659484
5104073 3 18342733005843376096
58051976 100 18340768143798762428
59554788 248 17561082497191837390
7164475 11 18334018327815379989
7399639 24 18126834122152481520
7970288 3 18192992853777969091
9709674 26 18198905820588371567

> <PUBCHEM_SHAPE_MULTIPOLES>
416.34
10.43
4.12
0.9
1.93
0.13
-0.01
6.52
-1.49
-5.98
0.21
0.21
0.16
1.67

> <PUBCHEM_SHAPE_SELFOVERLAP>
851.183

> <PUBCHEM_SHAPE_VOLUME>
241.8

> <PUBCHEM_COORDINATE_TYPE>
2
5
10

$$$$
