5487
  -OEChem-03022010243D

 24 26  0     0  0  0  0  0  0999 V2000
   -1.0403   -3.4421    0.0714 Cl  0  0  0  0  0  0  0  0  0  0  0  0
   -1.0712    2.9591   -0.2754 S   0  0  0  0  0  0  0  0  0  0  0  0
    3.1169   -0.6319   -0.7893 N   0  0  0  0  0  0  0  0  0  0  0  0
    0.9068   -1.1567   -0.3536 N   0  0  0  0  0  0  0  0  0  0  0  0
    2.1241    0.3975    0.9727 N   0  0  0  0  0  0  0  0  0  0  0  0
   -0.0781    1.6305   -0.3552 N   0  0  0  0  0  0  0  0  0  0  0  0
   -2.5413    2.2337   -0.0096 N   0  0  0  0  0  0  0  0  0  0  0  0
    4.1957    0.1781   -0.3118 C   0  0  0  0  0  0  0  0  0  0  0  0
    3.5344    0.8829    0.8795 C   0  0  0  0  0  0  0  0  0  0  0  0
    2.0063   -0.4510   -0.0206 C   0  0  0  0  0  0  0  0  0  0  0  0
   -0.4385   -0.7955   -0.1666 C   0  0  0  0  0  0  0  0  0  0  0  0
   -0.8619    0.5552   -0.1756 C   0  0  0  0  0  0  0  0  0  0  0  0
   -2.3142    0.9109    0.0282 C   0  0  0  0  0  0  0  0  0  0  0  0
   -1.4458   -1.7530    0.0410 C   0  0  0  0  0  0  0  0  0  0  0  0
   -3.2856   -0.0982    0.2330 C   0  0  0  0  0  0  0  0  0  0  0  0
   -2.8074   -1.4196    0.2321 C   0  0  0  0  0  0  0  0  0  0  0  0
    4.5255    0.8943   -1.0698 H   0  0  0  0  0  0  0  0  0  0  0  0
    5.0459   -0.4330    0.0045 H   0  0  0  0  0  0  0  0  0  0  0  0
    4.0610    0.6544    1.8121 H   0  0  0  0  0  0  0  0  0  0  0  0
    3.5364    1.9694    0.7424 H   0  0  0  0  0  0  0  0  0  0  0  0
    3.1878   -1.2472   -1.5903 H   0  0  0  0  0  0  0  0  0  0  0  0
    1.0266   -1.9775   -0.9406 H   0  0  0  0  0  0  0  0  0  0  0  0
   -4.3355    0.1257    0.3821 H   0  0  0  0  0  0  0  0  0  0  0  0
   -3.5355   -2.2159    0.3878 H   0  0  0  0  0  0  0  0  0  0  0  0
  1 14  1  0  0  0  0
  2  6  1  0  0  0  0
  2  7  1  0  0  0  0
  3  8  1  0  0  0  0
  3 10  1  0  0  0  0
  3 21  1  0  0  0  0
  4 10  1  0  0  0  0
  4 11  1  0  0  0  0
  4 22  1  0  0  0  0
  5  9  1  0  0  0  0
  5 10  2  0  0  0  0
  6 12  2  0  0  0  0
  7 13  2  0  0  0  0
  8  9  1  0  0  0  0
  8 17  1  0  0  0  0
  8 18  1  0  0  0  0
  9 19  1  0  0  0  0
  9 20  1  0  0  0  0
 11 12  1  0  0  0  0
 11 14  2  0  0  0  0
 12 13  1  0  0  0  0
 13 15  1  0  0  0  0
 14 16  1  0  0  0  0
 15 16  2  0  0  0  0
 15 23  1  0  0  0  0
 16 24  1  0  0  0  0
M  END
> <PUBCHEM_COMPOUND_CID>
5487

> <PUBCHEM_CONFORMER_RMSD>
0.6

> <PUBCHEM_CONFORMER_DIVERSEORDER>
1
6
8
7
3
5
2
4

> <PUBCHEM_MMFF94_PARTIAL_CHARGES>
20
1 -0.18
10 0.55
11 0.1
12 0.29
13 0.29
14 0.18
15 -0.15
16 -0.15
2 0.44
21 0.4
22 0.4
23 0.15
24 0.15
3 -0.82
4 -0.55
5 -0.7
6 -0.51
7 -0.51
8 0.37
9 0.25

> <PUBCHEM_EFFECTIVE_ROTOR_COUNT>
2.6

> <PUBCHEM_PHARMACOPHORE_FEATURES>
8
1 3 donor
1 4 donor
1 6 acceptor
1 7 acceptor
4 3 4 5 10 cation
5 2 6 7 12 13 rings
5 3 5 8 9 10 rings
6 11 12 13 14 15 16 rings

> <PUBCHEM_HEAVY_ATOM_COUNT>
16

> <PUBCHEM_ATOM_DEF_STEREO_COUNT>
0

> <PUBCHEM_ATOM_UDEF_STEREO_COUNT>
0

> <PUBCHEM_BOND_DEF_STEREO_COUNT>
0

> <PUBCHEM_BOND_UDEF_STEREO_COUNT>
0

> <PUBCHEM_ISOTOPIC_ATOM_COUNT>
0

> <PUBCHEM_COMPONENT_COUNT>
1

> <PUBCHEM_CACTVS_TAUTO_COUNT>
3

> <PUBCHEM_CONFORMER_ID>
0000156F00000001

> <PUBCHEM_MMFF94_ENERGY>
56.4599

> <PUBCHEM_FEATURE_SELFOVERLAP>
40.754

> <PUBCHEM_SHAPE_FINGERPRINT>
10498660 4 18335983086485723076
10608611 8 18343298154730569760
10967382 1 18410293644257272135
10989021 7 17906171007649531139
11132069 177 18412542136761510256
11578080 2 13108408786676700778
12173636 292 18337950069632335180
13140716 1 18049447238241027051
13764800 53 18337112271820734568
14614273 12 18043243548955730941
15042514 8 18336269045419132467
15219456 202 18130791127177515814
15309172 13 18338525131604215825
15490181 7 18051412873015892727
15669948 3 18335697273681538586
16945 1 18409728499565000063
19049666 15 18128822945550353342
193761 8 17761212116371946999
19868273 325 18337669844474925799
200 152 14490466508693142850
20510252 161 18342459209936134113
20871998 184 18342742935570555943
21029758 11 18341606083855720005
21029758 27 18115880757462249821
21501502 16 18194397792891968467
21524375 3 18054219938801436327
21650355 55 18264759038056610394
22802520 49 18129108831384617654
2334 1 17689154934281588367
23388829 49 17118873488797249935
23402539 116 18342449383394040663
23557571 272 18271257109491777452
23559900 14 18342176610421699358
23598294 1 18334568032052458034
2748010 2 18265624182294093631
3071541 12 17402332573116310485
350125 39 18120941594240899643
43471831 8 18262236595437862379
474 4 16807026552844428684
6333449 129 18411698768493455869
7097593 13 17753590366192889410
7364860 26 17474954701861005577
77492 1 17385726898168193494
81228 2 18339076111420687451

> <PUBCHEM_SHAPE_MULTIPOLES>
310.09
5.91
3.15
0.77
5.7
0.22
-0.06
-0.27
-0.45
-2.65
0.18
0.37
-0.04
0.41

> <PUBCHEM_SHAPE_SELFOVERLAP>
652.622

> <PUBCHEM_SHAPE_VOLUME>
177.7

> <PUBCHEM_COORDINATE_TYPE>
2
5
10

$$$$
