3042
  -OEChem-03022013113D

 57 58  0     0  0  0  0  0  0999 V2000
    0.5781   -0.1424   -0.0062 O   0  0  0  0  0  0  0  0  0  0  0  0
   -0.3266   -1.2965   -1.7912 O   0  0  0  0  0  0  0  0  0  0  0  0
    4.1946    0.5096   -0.3173 N   0  0  0  0  0  0  0  0  0  0  0  0
   -1.7168   -0.6328    0.0716 C   0  0  0  0  0  0  0  0  0  0  0  0
   -2.0025    0.8610    0.2143 C   0  0  0  0  0  0  0  0  0  0  0  0
   -2.8560   -1.3114   -0.7111 C   0  0  0  0  0  0  0  0  0  0  0  0
   -1.5440   -1.2683    1.4635 C   0  0  0  0  0  0  0  0  0  0  0  0
   -2.1053    1.5271   -1.1644 C   0  0  0  0  0  0  0  0  0  0  0  0
   -3.2817    1.0926    1.0298 C   0  0  0  0  0  0  0  0  0  0  0  0
   -2.7314   -2.8352   -0.7445 C   0  0  0  0  0  0  0  0  0  0  0  0
   -1.4292   -2.7924    1.4127 C   0  0  0  0  0  0  0  0  0  0  0  0
   -2.4434    3.0118   -1.0492 C   0  0  0  0  0  0  0  0  0  0  0  0
   -3.6181    2.5780    1.1412 C   0  0  0  0  0  0  0  0  0  0  0  0
   -2.5933   -3.4209    0.6558 C   0  0  0  0  0  0  0  0  0  0  0  0
   -3.7106    3.2385   -0.2308 C   0  0  0  0  0  0  0  0  0  0  0  0
   -0.4269   -0.7442   -0.7039 C   0  0  0  0  0  0  0  0  0  0  0  0
    1.8653   -0.1749   -0.6305 C   0  0  0  0  0  0  0  0  0  0  0  0
    2.8637    0.5334    0.2712 C   0  0  0  0  0  0  0  0  0  0  0  0
    4.8249   -0.7981   -0.1204 C   0  0  0  0  0  0  0  0  0  0  0  0
    5.0332    1.5659    0.2546 C   0  0  0  0  0  0  0  0  0  0  0  0
    6.1871   -0.8574   -0.7905 C   0  0  0  0  0  0  0  0  0  0  0  0
    5.2391    1.3568    1.7452 C   0  0  0  0  0  0  0  0  0  0  0  0
   -1.1845    1.3537    0.7596 H   0  0  0  0  0  0  0  0  0  0  0  0
   -2.8975   -0.9809   -1.7546 H   0  0  0  0  0  0  0  0  0  0  0  0
   -3.8371   -1.1055   -0.2771 H   0  0  0  0  0  0  0  0  0  0  0  0
   -2.4081   -1.0727    2.1043 H   0  0  0  0  0  0  0  0  0  0  0  0
   -0.6736   -0.8622    1.9927 H   0  0  0  0  0  0  0  0  0  0  0  0
   -1.1687    1.4410   -1.7257 H   0  0  0  0  0  0  0  0  0  0  0  0
   -2.8913    1.0740   -1.7766 H   0  0  0  0  0  0  0  0  0  0  0  0
   -4.1579    0.6096    0.5912 H   0  0  0  0  0  0  0  0  0  0  0  0
   -3.1858    0.7294    2.0559 H   0  0  0  0  0  0  0  0  0  0  0  0
   -1.8777   -3.1475   -1.3551 H   0  0  0  0  0  0  0  0  0  0  0  0
   -3.6207   -3.2594   -1.2262 H   0  0  0  0  0  0  0  0  0  0  0  0
   -1.3977   -3.1920    2.4331 H   0  0  0  0  0  0  0  0  0  0  0  0
   -0.4840   -3.0766    0.9346 H   0  0  0  0  0  0  0  0  0  0  0  0
   -1.6053    3.5411   -0.5792 H   0  0  0  0  0  0  0  0  0  0  0  0
   -2.5701    3.4408   -2.0498 H   0  0  0  0  0  0  0  0  0  0  0  0
   -2.8481    3.0832    1.7375 H   0  0  0  0  0  0  0  0  0  0  0  0
   -4.5670    2.7042    1.6751 H   0  0  0  0  0  0  0  0  0  0  0  0
   -2.4483   -4.5051    0.5897 H   0  0  0  0  0  0  0  0  0  0  0  0
   -3.5234   -3.2573    1.2140 H   0  0  0  0  0  0  0  0  0  0  0  0
   -4.5732    2.8330   -0.7736 H   0  0  0  0  0  0  0  0  0  0  0  0
   -3.8851    4.3137   -0.1114 H   0  0  0  0  0  0  0  0  0  0  0  0
    2.1354   -1.2235   -0.7905 H   0  0  0  0  0  0  0  0  0  0  0  0
    1.8057    0.3313   -1.6019 H   0  0  0  0  0  0  0  0  0  0  0  0
    2.8268    0.0843    1.2724 H   0  0  0  0  0  0  0  0  0  0  0  0
    2.5049    1.5646    0.3943 H   0  0  0  0  0  0  0  0  0  0  0  0
    4.8962   -1.1072    0.9284 H   0  0  0  0  0  0  0  0  0  0  0  0
    4.2201   -1.5684   -0.6121 H   0  0  0  0  0  0  0  0  0  0  0  0
    5.9952    1.6531   -0.2614 H   0  0  0  0  0  0  0  0  0  0  0  0
    4.5498    2.5382    0.0923 H   0  0  0  0  0  0  0  0  0  0  0  0
    6.1492   -0.4843   -1.8198 H   0  0  0  0  0  0  0  0  0  0  0  0
    6.9517   -0.3012   -0.2401 H   0  0  0  0  0  0  0  0  0  0  0  0
    6.5282   -1.8979   -0.8352 H   0  0  0  0  0  0  0  0  0  0  0  0
    5.7967    2.2140    2.1421 H   0  0  0  0  0  0  0  0  0  0  0  0
    5.8418    0.4754    1.9808 H   0  0  0  0  0  0  0  0  0  0  0  0
    4.3071    1.3152    2.3156 H   0  0  0  0  0  0  0  0  0  0  0  0
  1 16  1  0  0  0  0
  1 17  1  0  0  0  0
  2 16  2  0  0  0  0
  3 18  1  0  0  0  0
  3 19  1  0  0  0  0
  3 20  1  0  0  0  0
  4  5  1  0  0  0  0
  4  6  1  0  0  0  0
  4  7  1  0  0  0  0
  4 16  1  0  0  0  0
  5  8  1  0  0  0  0
  5  9  1  0  0  0  0
  5 23  1  0  0  0  0
  6 10  1  0  0  0  0
  6 24  1  0  0  0  0
  6 25  1  0  0  0  0
  7 11  1  0  0  0  0
  7 26  1  0  0  0  0
  7 27  1  0  0  0  0
  8 12  1  0  0  0  0
  8 28  1  0  0  0  0
  8 29  1  0  0  0  0
  9 13  1  0  0  0  0
  9 30  1  0  0  0  0
  9 31  1  0  0  0  0
 10 14  1  0  0  0  0
 10 32  1  0  0  0  0
 10 33  1  0  0  0  0
 11 14  1  0  0  0  0
 11 34  1  0  0  0  0
 11 35  1  0  0  0  0
 12 15  1  0  0  0  0
 12 36  1  0  0  0  0
 12 37  1  0  0  0  0
 13 15  1  0  0  0  0
 13 38  1  0  0  0  0
 13 39  1  0  0  0  0
 14 40  1  0  0  0  0
 14 41  1  0  0  0  0
 15 42  1  0  0  0  0
 15 43  1  0  0  0  0
 17 18  1  0  0  0  0
 17 44  1  0  0  0  0
 17 45  1  0  0  0  0
 18 46  1  0  0  0  0
 18 47  1  0  0  0  0
 19 21  1  0  0  0  0
 19 48  1  0  0  0  0
 19 49  1  0  0  0  0
 20 22  1  0  0  0  0
 20 50  1  0  0  0  0
 20 51  1  0  0  0  0
 21 52  1  0  0  0  0
 21 53  1  0  0  0  0
 21 54  1  0  0  0  0
 22 55  1  0  0  0  0
 22 56  1  0  0  0  0
 22 57  1  0  0  0  0
M  END
> <PUBCHEM_COMPOUND_CID>
3042

> <PUBCHEM_CONFORMER_RMSD>
1

> <PUBCHEM_CONFORMER_DIVERSEORDER>
1
19
8
32
30
45
16
22
52
82
90
65
63
20
84
53
70
34
60
58
80
94
14
24
88
47
67
17
31
89
39
3
72
87
81
38
37
41
85
55
6
27
13
66
11
26
48
61
68
4
33
95
71
76
10
36
49
51
29
77
62
75
86
44
43
5
23
56
91
40
42
74
69
59
78
83
2
12
57
7
73
15
93
46
21
35
28
64
50
96
79
25
18
54
9
92

> <PUBCHEM_MMFF94_PARTIAL_CHARGES>
9
1 -0.43
16 0.66
17 0.28
18 0.27
19 0.27
2 -0.57
20 0.27
3 -0.81
4 0.06

> <PUBCHEM_EFFECTIVE_ROTOR_COUNT>
10.4

> <PUBCHEM_PHARMACOPHORE_FEATURES>
4
1 2 acceptor
1 3 cation
6 4 6 7 10 11 14 rings
6 5 8 9 12 13 15 rings

> <PUBCHEM_HEAVY_ATOM_COUNT>
22

> <PUBCHEM_ATOM_DEF_STEREO_COUNT>
0

> <PUBCHEM_ATOM_UDEF_STEREO_COUNT>
0

> <PUBCHEM_BOND_DEF_STEREO_COUNT>
0

> <PUBCHEM_BOND_UDEF_STEREO_COUNT>
0

> <PUBCHEM_ISOTOPIC_ATOM_COUNT>
0

> <PUBCHEM_COMPONENT_COUNT>
1

> <PUBCHEM_CACTVS_TAUTO_COUNT>
1

> <PUBCHEM_CONFORMER_ID>
00000BE200000001

> <PUBCHEM_MMFF94_ENERGY>
39.4314

> <PUBCHEM_FEATURE_SELFOVERLAP>
20.297

> <PUBCHEM_SHAPE_FINGERPRINT>
10291535 26 17775284941436304864
10319926 262 18411409610711783706
10670039 82 18047764973231143468
11101153 10 17976541933940074924
11315181 36 18041275595320290568
11405975 8 18411981343688617826
11545043 162 18343867732335454546
12107183 9 18119238464384451970
12788726 201 18337091463247783867
13004483 165 18049162460497950955
13583140 156 18060135483790656510
13675066 3 18272651286109452942
14142880 1 18407758127974138701
14178342 30 18187370951855604114
15042514 8 18262248832189897027
15230672 131 18044666300508941390
17093844 174 18343581829321399122
17844677 252 18341337803292972676
20600515 1 17981064207963701451
20645477 56 18340213985585347645
21033648 29 18190734241982446660
21065198 57 18411702089130832156
21065201 7 18410570704603578250
21304303 282 18190435243796819607
21401589 2 18342741776056422169
21524375 3 18266181634831722685
22182937 141 18342177769171786993
22224240 67 18341342081254895625
22956985 138 16459948329403006466
2306618 200 17703517669997128411
23402539 116 18339641243866452143
23419403 2 14474105870467332023
23557571 272 18342749524150731884
23559900 14 18190735530466412150
27216 239 18272933851206263417
283562 15 18337101384395553035
2838139 119 17916019062490163209
312423 11 17970078931450177180
4214541 1 18413109459603393156
497634 4 15912205510856854124
5104073 3 18413384350680121794
559249 180 18340485552721781614
5924683 9 18338231669400318034
59755656 520 18337389323402974325
77188 2 17832151889484319627
81228 2 18336840787628933751
90127 26 18272375308690796768
9981440 41 18131060515821096658

> <PUBCHEM_SHAPE_MULTIPOLES>
436.03
11.06
3.89
1.44
23.6
0.29
-0.21
-4.18
-1.1
-6.27
-0.35
-0.13
0.07
1.05

> <PUBCHEM_SHAPE_SELFOVERLAP>
873.563

> <PUBCHEM_SHAPE_VOLUME>
254.7

> <PUBCHEM_COORDINATE_TYPE>
2
5
10

$$$$
