2200
  -OEChem-03022010413D

 39 41  0     1  0  0  0  0  0999 V2000
   -0.2837    0.2194   -0.0834 N   0  0  3  0  0  0  0  0  0  0  0  0
   -3.4068    0.4826   -0.6000 N   0  0  0  0  0  0  0  0  0  0  0  0
   -2.5385    2.4043    0.2557 N   0  0  0  0  0  0  0  0  0  0  0  0
   -1.0133    0.9937   -1.0473 C   0  0  0  0  0  0  0  0  0  0  0  0
   -2.3432    1.3200   -0.4510 C   0  0  0  0  0  0  0  0  0  0  0  0
    0.5559    0.9181    0.8971 C   0  0  0  0  0  0  0  0  0  0  0  0
   -4.5437    1.0037    0.0970 C   0  0  0  0  0  0  0  0  0  0  0  0
   -0.3440   -1.1853   -0.0652 C   0  0  0  0  0  0  0  0  0  0  0  0
   -3.9801    2.3232    0.6456 C   0  0  0  0  0  0  0  0  0  0  0  0
    2.0019    0.9458    0.4789 C   0  0  0  0  0  0  0  0  0  0  0  0
   -0.8012   -1.8532    1.0734 C   0  0  0  0  0  0  0  0  0  0  0  0
    0.0519   -1.9194   -1.1859 C   0  0  0  0  0  0  0  0  0  0  0  0
    2.8467   -0.0833    0.8708 C   0  0  0  0  0  0  0  0  0  0  0  0
    2.4702    2.0004   -0.2924 C   0  0  0  0  0  0  0  0  0  0  0  0
   -0.8620   -3.2466    1.0913 C   0  0  0  0  0  0  0  0  0  0  0  0
   -0.0090   -3.3128   -1.1681 C   0  0  0  0  0  0  0  0  0  0  0  0
    4.1865   -0.0575    0.4838 C   0  0  0  0  0  0  0  0  0  0  0  0
    3.8100    2.0262   -0.6796 C   0  0  0  0  0  0  0  0  0  0  0  0
   -0.4659   -3.9764   -0.0294 C   0  0  0  0  0  0  0  0  0  0  0  0
    4.6682    0.9973   -0.2914 C   0  0  0  0  0  0  0  0  0  0  0  0
   -0.4942    1.9282   -1.2881 H   0  0  0  0  0  0  0  0  0  0  0  0
   -1.1618    0.4594   -1.9924 H   0  0  0  0  0  0  0  0  0  0  0  0
    0.4647    0.4673    1.8937 H   0  0  0  0  0  0  0  0  0  0  0  0
    0.2024    1.9489    1.0333 H   0  0  0  0  0  0  0  0  0  0  0  0
   -4.8543    0.3353    0.9054 H   0  0  0  0  0  0  0  0  0  0  0  0
   -5.3877    1.1752   -0.5771 H   0  0  0  0  0  0  0  0  0  0  0  0
   -4.5165    3.1817    0.2277 H   0  0  0  0  0  0  0  0  0  0  0  0
   -4.0670    2.3627    1.7365 H   0  0  0  0  0  0  0  0  0  0  0  0
   -3.4068   -0.4007   -1.0951 H   0  0  0  0  0  0  0  0  0  0  0  0
   -1.1259   -1.3015    1.9518 H   0  0  0  0  0  0  0  0  0  0  0  0
    0.4193   -1.4190   -2.0783 H   0  0  0  0  0  0  0  0  0  0  0  0
    2.4835   -0.9090    1.4761 H   0  0  0  0  0  0  0  0  0  0  0  0
    1.8119    2.8080   -0.5996 H   0  0  0  0  0  0  0  0  0  0  0  0
   -1.2204   -3.7633    1.9768 H   0  0  0  0  0  0  0  0  0  0  0  0
    0.3014   -3.8812   -2.0399 H   0  0  0  0  0  0  0  0  0  0  0  0
    4.8548   -0.8585    0.7862 H   0  0  0  0  0  0  0  0  0  0  0  0
    4.1852    2.8476   -1.2830 H   0  0  0  0  0  0  0  0  0  0  0  0
   -0.5133   -5.0614   -0.0156 H   0  0  0  0  0  0  0  0  0  0  0  0
    5.7114    1.0176   -0.5928 H   0  0  0  0  0  0  0  0  0  0  0  0
  1  4  1  0  0  0  0
  1  6  1  0  0  0  0
  1  8  1  0  0  0  0
  2  5  1  0  0  0  0
  2  7  1  0  0  0  0
  2 29  1  0  0  0  0
  3  5  2  0  0  0  0
  3  9  1  0  0  0  0
  4  5  1  0  0  0  0
  4 21  1  0  0  0  0
  4 22  1  0  0  0  0
  6 10  1  0  0  0  0
  6 23  1  0  0  0  0
  6 24  1  0  0  0  0
  7  9  1  0  0  0  0
  7 25  1  0  0  0  0
  7 26  1  0  0  0  0
  8 11  2  0  0  0  0
  8 12  1  0  0  0  0
  9 27  1  0  0  0  0
  9 28  1  0  0  0  0
 10 13  2  0  0  0  0
 10 14  1  0  0  0  0
 11 15  1  0  0  0  0
 11 30  1  0  0  0  0
 12 16  2  0  0  0  0
 12 31  1  0  0  0  0
 13 17  1  0  0  0  0
 13 32  1  0  0  0  0
 14 18  2  0  0  0  0
 14 33  1  0  0  0  0
 15 19  2  0  0  0  0
 15 34  1  0  0  0  0
 16 19  1  0  0  0  0
 16 35  1  0  0  0  0
 17 20  2  0  0  0  0
 17 36  1  0  0  0  0
 18 20  1  0  0  0  0
 18 37  1  0  0  0  0
 19 38  1  0  0  0  0
 20 39  1  0  0  0  0
M  END
> <PUBCHEM_COMPOUND_CID>
2200

> <PUBCHEM_CONFORMER_RMSD>
0.8

> <PUBCHEM_CONFORMER_DIVERSEORDER>
1
7
16
34
33
14
38
23
24
12
41
27
20
10
19
26
25
28
29
31
11
40
37
21
5
22
4
8
9
17
18
32
36
13
15
6
35
3
30
2
39

> <PUBCHEM_MMFF94_PARTIAL_CHARGES>
31
1 -0.84
10 -0.14
11 -0.15
12 -0.15
13 -0.15
14 -0.15
15 -0.15
16 -0.15
17 -0.15
18 -0.15
19 -0.15
2 -0.82
20 -0.15
29 0.4
3 -0.7
30 0.15
31 0.15
32 0.15
33 0.15
34 0.15
35 0.15
36 0.15
37 0.15
38 0.15
39 0.15
4 0.43
5 0.44
6 0.51
7 0.37
8 0.1
9 0.25

> <PUBCHEM_EFFECTIVE_ROTOR_COUNT>
5.6

> <PUBCHEM_PHARMACOPHORE_FEATURES>
6
1 1 cation
1 2 donor
3 2 3 5 cation
5 2 3 5 7 9 rings
6 10 13 14 17 18 20 rings
6 8 11 12 15 16 19 rings

> <PUBCHEM_HEAVY_ATOM_COUNT>
20

> <PUBCHEM_ATOM_DEF_STEREO_COUNT>
0

> <PUBCHEM_ATOM_UDEF_STEREO_COUNT>
0

> <PUBCHEM_BOND_DEF_STEREO_COUNT>
0

> <PUBCHEM_BOND_UDEF_STEREO_COUNT>
0

> <PUBCHEM_ISOTOPIC_ATOM_COUNT>
0

> <PUBCHEM_COMPONENT_COUNT>
1

> <PUBCHEM_CACTVS_TAUTO_COUNT>
1

> <PUBCHEM_CONFORMER_ID>
0000089800000001

> <PUBCHEM_MMFF94_ENERGY>
74.5241

> <PUBCHEM_FEATURE_SELFOVERLAP>
30.452

> <PUBCHEM_SHAPE_FINGERPRINT>
107951 10 18187097148023092234
10922049 32 18410575067594109465
12160290 23 18048849056502071215
12173636 292 18339916103876193156
12553582 1 17400921290029302386
12592029 89 18264769869985132730
12714826 92 17983871256906498800
12788726 201 18048304836785314826
13681431 1 17475495197646269335
14251757 17 15338824400349351229
15295992 7 17988639752478369272
15309172 13 18334288743283101053
15906896 17 18339075024646320398
16752209 62 18269543008901815962
18222031 100 11674888787598081672
18785283 64 18191873322921835442
19591789 44 18410290293982236747
19784866 9 18128252277372208209
200 152 10807935959809516648
20028762 73 18201154481551506087
20567600 347 18339362968186527335
20602899 9 18059864986122711178
20645476 183 18410008862292978188
21033650 10 17559421122454461568
21041028 32 17396429771765017043
21421861 104 17835809594949413089
21524375 3 18411129221480888829
22224240 67 18412265052064478121
22907989 373 18050289463873337381
22956985 138 17826789235936469875
23366157 5 17903363606534193993
23419403 2 17761820253302107427
23557571 272 17764286728729736736
23598288 3 18194686097425615334
25147074 1 17896309398235420384
2637199 183 18408889503663544840
3084891 72 18343018852933795856
3091708 16 9194939220385557419
458136 41 18267874891080454225
469060 322 13191179214355487592
474 4 18339079268385108769
474229 33 18409168844326105619
5845 1 15899761959829348323
6138700 20 17980765939934018966
633830 44 18271807856878985333
7364860 26 17981885242438018839
7832392 63 18261954171679580580
81228 2 17904457942583979641
81539 233 18266171738958008565
8272917 22 18195529177793976905

> <PUBCHEM_SHAPE_MULTIPOLES>
396.65
7.39
4.25
1.11
2.45
4.71
0.04
-7.45
-0.26
-2.45
0.15
-0.02
0.44
-0.34

> <PUBCHEM_SHAPE_SELFOVERLAP>
847.885

> <PUBCHEM_SHAPE_VOLUME>
215.9

> <PUBCHEM_COORDINATE_TYPE>
2
5
10

$$$$
